 &time_control
 run_days                            = 0,
 run_hours                           = 0,
 run_minutes                         = 0,
 run_seconds                         = 0,
 start_year                          = STYR, 2000, 2000,
 start_month                         = STMO,   01,   01,
 start_day                           = STDY,   24,   24,
 start_hour                          = STHR,   12,   12,
 start_minute                        = 00,   00,   00,
 start_second                        = 00,   00,   00,
 end_year                            = EDYR, 2000, 2000,
 end_month                           = EDMO,   01,   01,
 end_day                             = EDDY,   25,   25,
 end_hour                            = EDHR,   12,   12,
 end_minute                          = 00,   00,   00,
 end_second                          = 00,   00,   00,
 interval_seconds                    = 3600
 input_from_file                     = .true.,.true.,.true.,
 history_interval                    = 60,  60,   60,
 frames_per_outfile                  = 1, 1000, 1000,
 restart                             = .false.,
 restart_interval                    = 7200,
 io_form_history                     = 2
 io_form_restart                     = 2
 io_form_input                       = 2
 io_form_boundary                    = 2
 debug_level                         = 0
 nwp_diagnostics                     = 0
 output_diagnostics                  = 0
 auxhist3_outname = "wrfxtrm_d<domain>_<date>"
 auxhist3_interval = 60, 60,
 frames_per_auxhist3 = 100, 100,
 io_form_auxhist3 = 2
 /

 &domains
 time_step                           = 20,
 time_step_fract_num                 = 0,
 time_step_fract_den                 = 1,
 max_dom                             = 1,
 e_we                                = 550,    112,   94,
 e_sn                                = 375,    97,    91,
 e_vert                              = 51,    30,    30,
 p_top_requested                     = 2000,
 num_metgrid_levels                  = 32,
 num_metgrid_soil_levels             = 4,
 dx                                  = 3000, 10000,  3333.33,
 dy                                  = 3000, 10000,  3333.33,
 grid_id                             = 1,     2,     3,
 parent_id                           = 0,     1,     2,
 i_parent_start                      = 1,     31,    30,
 j_parent_start                      = 1,     17,    30,
 parent_grid_ratio                   = 1,     3,     3,
 parent_time_step_ratio              = 1,     3,     3,
 feedback                            = 1,
 smooth_option                       = 0
 eta_levels   =   1.0000, 0.9980, 0.9940, 0.9870, 0.9750, 0.9590,
          0.9390, 0.9160, 0.8920, 0.8650, 0.8350, 0.8020, 0.7660,
          0.7270, 0.6850, 0.6400, 0.5920, 0.5420, 0.4970, 0.4565,
          0.4205, 0.3877, 0.3582, 0.3317, 0.3078, 0.2863, 0.2670,
          0.2496, 0.2329, 0.2188, 0.2047, 0.1906, 0.1765, 0.1624,
          0.1483, 0.1342, 0.1201, 0.1060, 0.0919, 0.0778, 0.0657,
          0.0568, 0.0486, 0.0409, 0.0337, 0.0271, 0.0209, 0.0151,
          0.0097, 0.0047, 0.0000,
 use_adaptive_time_step              = .true.
 step_to_output_time                 = .true.
 target_cfl                          = 1.2
 max_step_increase_pct               = 5
 starting_time_step                  = 18
 max_time_step                       = 20
 numtiles                            = 1
 min_time_step                       = 20
 /

 &physics
 mp_physics                          = 8,     8,     8,     8,
ra_lw_physics                       = 4, 4, 4, 4
ra_sw_physics                       = 4, 4, 4, 4
radt                                = 30,    30,    30,    30,
sf_sfclay_physics                   = 1,     1,     1,     1,
sf_surface_physics                  = 4,     4,     4,     4,
bl_pbl_physics                      = 1,     1,     1,     1,
sf_urban_physics                    = 0,     0,     0,     0,
bldt                                = 0,     0,     0,     0,
cu_physics                          = 0, 3, 3, 0
cu_diag                             = 0,     0,     0,     0,
cudt                                = 5,     5,     5,     5,
isfflx                              = 1,
ifsnow                              = 1,
icloud                              = 1,
swrad_scat                          = 1.
surface_input_source                = 1,
num_soil_layers                     = 4,
sf_surface_mosaic                   = 1
mosaic_cat                          = 3
mosaic_lu                           = 0
mosaic_soil                         = 0
maxiens                             = 1,
maxens                              = 3,
maxens2                             = 3,
maxens3                             = 16,
ensdim                              = 144,
cugd_avedx                          = 1
ishallow                            = 1,
num_land_cat                        = 20,
mp_zero_out                         = 2
mp_zero_out_thresh                  = 1.e-12
seaice_threshold                    = 271,
sst_update                          = 0,
sst_skin                            = 0
tmn_update                          = 0
usemonalb                           = .true.,
rdmaxalb                            = .true.
rdlai2d                             = .true.
ua_phys                             = .false.
cam_abs_freq_s                      = 21600
levsiz                              = 59
paerlev                             = 29
cam_abs_dim1                        = 4
cam_abs_dim2                        = 38
lagday                              = 150
swint_opt                           = 1
cu_rad_feedback                     = .false.,  .false.,  .false.,  .false.,
omlcall                             = 0,
oml_hml0                            = 50,
oml_gamma                           = 0.14,
shadlen                             = 25000.
slope_rad                           = 0, 0, 0, 0
topo_shading                        = 0, 0, 0, 0
topo_wind                           = 0, 0, 0, 0
no_mp_heating                       = 0
fractional_seaice                   = 0
bucket_mm                           = -1.
bucket_J                            = -1.
mp_tend_lim                         = 10.,
prec_acc_dt                         = 60, 60, 60, 60
grav_settling                       = 0,
 /

 &fdda
 /

 &dynamics
 w_damping                           = 1,
 diff_opt                            = 1,      1,      1,
 km_opt                              = 4,      4,      4,
 diff_6th_opt                        = 2,      0,      0,
 diff_6th_factor                     = 0.25,   0.12,   0.12,
 base_temp                           = 290.
 damp_opt                            = 3,
 zdamp                               = 5000.,  5000.,  5000.,
 dampcoef                            = 0.2,    0.2,    0.2
 khdif                               = 0,      0,      0,
 kvdif                               = 0,      0,      0,
 non_hydrostatic                     = .true., .true., .true.,
 smdiv                               = 0.1,
 emdiv                               = 0.01,
 epssm                               = 0.1,
 moist_adv_opt                       = 1,      1,      1,
 moist_adv_dfi_opt                   = 0,      1,     1,
 scalar_adv_opt                      = 1,      1,      1,
 time_step_sound                     = 4,
 h_mom_adv_order                     = 5,
 v_mom_adv_order                     = 5,
 h_sca_adv_order                     = 5,
 v_sca_adv_order                     = 5,
 /

 &bdy_control
 spec_bdy_width                      = 5,
 spec_zone                           = 1,
 relax_zone                          = 4,
 specified                           = .true., .false.,.false.,
 nested                              = .false., .true., .true.,
 /
 &noah_mp
  dveg                               = 4,
  opt_crs                            = 1,
  opt_btr                            = 1,
  opt_run                            = 1,
  opt_sfc                            = 1
  opt_frz                            = 1,
  opt_inf                            = 1,
  opt_rad                            = 3,
  opt_alb                            = 2,
  opt_snf                            = 1,
  opt_tbot                           = 2,
  opt_stc                            = 1,
  /
 &grib2
 /

 &namelist_quilt
 nio_tasks_per_group = 0,
 nio_groups = 1,
 /
